Input file: input.txt
Output file: output.txt
Execution mode: standard

Matrix A:
2.0 4.0 6.0 
1.0 2.0 3.0 
3.0 6.0 9.0 

Error: Matrix is singular, cannot perform decomposition.