Input file: input3.txt
Output file: output.txt
Execution mode: standard

Matrix A:
10.5 0.5 0.3 0.1 0.2 
0.2 10.9 0.5 0.3 0.5 
0.5 0.5 11.0 0.2 0.3 
0.4 0.4 0.6 10.7 0.4 
0.2 0.5 0.4 0.4 10.4 

Final Matrix L:
1.0 0.0 0.0 0.0 0.0 
0.0 1.0 0.0 0.0 0.0 
0.0 0.0 1.0 0.0 0.0 
0.0 0.0 0.1 1.0 0.0 
0.0 0.0 0.0 0.0 1.0 

Final Matrix U:
10.5 0.5 0.3 0.1 0.2 
-0.0 10.9 0.5 0.3 0.5 
-0.0 0.0 11.0 0.2 0.3 
0.0 0.0 0.0 10.6 0.4 
0.0 0.0 0.0 0.0 10.3 

Difference Matrix (A - LU):
0.0000 0.0000 0.0000 0.0000 0.0000 
0.0000 0.0000 0.0000 0.0000 0.0000 
0.0000 0.0000 0.0000 0.0000 0.0000 
0.0000 0.0000 0.0000 0.0000 0.0000 
0.0000 0.0000 0.0000 0.0000 0.0000 

Tolerance (difference between A and LU): 0.0000

Decomposition complete. Results written to output.txt